Version 4
SHEET 1 1160 936
WIRE 256 -176 -16 -176
WIRE 592 -176 528 -176
WIRE 720 -176 656 -176
WIRE 1056 -176 720 -176
WIRE -944 -112 -944 -144
WIRE -816 -112 -816 -144
WIRE -672 -112 -672 -144
WIRE 720 -96 720 -176
WIRE -944 0 -944 -32
WIRE -816 0 -816 -32
WIRE -672 0 -672 -32
WIRE 64 16 64 -80
WIRE -16 32 -16 -176
WIRE 32 32 32 16
WIRE 32 32 -16 32
WIRE 48 32 32 32
WIRE 256 48 256 -176
WIRE 256 48 96 48
WIRE 864 48 864 -96
WIRE -512 64 -640 64
WIRE -416 64 -432 64
WIRE -384 64 -416 64
WIRE -272 64 -320 64
WIRE -224 64 -272 64
WIRE -112 64 -160 64
WIRE 32 64 -112 64
WIRE 48 64 32 64
WIRE 256 64 256 48
WIRE 432 64 256 64
WIRE 528 64 528 -176
WIRE 528 64 496 64
WIRE 592 64 528 64
WIRE 720 64 720 -16
WIRE 720 64 656 64
WIRE 832 64 832 48
WIRE 832 64 720 64
WIRE 848 64 832 64
WIRE 1056 64 1056 -176
WIRE 1120 64 1056 64
WIRE 1152 64 1120 64
WIRE -112 80 -112 64
WIRE 32 80 32 64
WIRE 1056 80 1056 64
WIRE 1056 80 896 80
WIRE 832 96 784 96
WIRE 848 96 832 96
WIRE 528 112 528 64
WIRE 832 112 832 96
WIRE -112 176 -112 160
WIRE -640 208 -640 64
WIRE 64 208 64 80
WIRE 528 224 528 192
WIRE 784 224 784 96
WIRE 864 240 864 112
WIRE -272 304 -272 64
WIRE -80 304 -272 304
WIRE 256 304 256 64
WIRE 256 304 0 304
WIRE -640 400 -640 288
FLAG -640 400 0
FLAG -944 0 0
FLAG -816 0 0
FLAG -944 -144 V+
FLAG -816 -144 V-
FLAG -672 0 0
FLAG -672 -144 REF
FLAG -512 64 IN
FLAG 64 -80 V+
FLAG 64 208 V-
FLAG -416 64 IN
FLAG -112 176 REF
FLAG 864 -96 V+
FLAG 864 240 V-
FLAG 1120 64 OUT
FLAG 784 224 REF
FLAG 528 224 REF
SYMBOL voltage -640 192 R0
WINDOW 123 24 124 Left 2
WINDOW 39 0 0 Left 2
SYMATTR Value2 AC 1
SYMATTR InstName VIN1
SYMATTR Value SINE(0, 721E-3, 10)
SYMBOL voltage -944 -128 R0
WINDOW 123 0 0 Left 2
WINDOW 39 0 0 Left 2
SYMATTR InstName V5
SYMATTR Value 12
SYMBOL voltage -816 -128 R0
WINDOW 123 0 0 Left 2
WINDOW 39 0 0 Left 2
SYMATTR InstName V6
SYMATTR Value -12
SYMBOL voltage -672 -128 R0
WINDOW 123 0 0 Left 2
WINDOW 39 0 0 Left 2
SYMATTR InstName V7
SYMATTR Value 0
SYMBOL cap -320 48 R90
WINDOW 0 0 32 VBottom 2
WINDOW 3 32 32 VTop 2
SYMATTR InstName C1
SYMATTR Value 4.7E-9
SYMBOL cap -160 48 R90
WINDOW 0 0 32 VBottom 2
WINDOW 3 32 32 VTop 2
SYMATTR InstName C2
SYMATTR Value 4.7E-9
SYMBOL res 16 288 R90
WINDOW 0 0 56 VBottom 2
WINDOW 3 32 56 VTop 2
SYMATTR InstName R1
SYMATTR Value 93.1E3
SYMBOL res -128 64 R0
SYMATTR InstName R2
SYMATTR Value 102E3
SYMBOL Opamps\\LT1007 64 -16 R0
SYMATTR InstName U1
SYMBOL cap 656 -192 R90
WINDOW 0 0 32 VBottom 2
WINDOW 3 32 32 VTop 2
SYMATTR InstName C3
SYMATTR Value 5.1E-9
SYMBOL res 704 -112 R0
SYMATTR InstName R3
SYMATTR Value 243E3
SYMBOL cap 656 48 R90
WINDOW 0 0 32 VBottom 2
WINDOW 3 32 32 VTop 2
SYMATTR InstName C4
SYMATTR Value 5.1E-9
SYMBOL res 512 96 R0
SYMATTR InstName R4
SYMATTR Value 41.2E3
SYMBOL cap 496 48 R90
WINDOW 0 0 32 VBottom 2
WINDOW 3 32 32 VTop 2
SYMATTR InstName C5
SYMATTR Value 5.1E-9
SYMBOL Opamps\\LT1007 864 16 R0
SYMATTR InstName U2
TEXT -664 504 Left 2 !.ac dec 100 10 500000 \n.save V(*?*) I(*?*)
