Version 4
SHEET 1 4112 860
WIRE 48 -112 -16 -112
WIRE 176 -112 112 -112
WIRE 512 -112 176 -112
WIRE 176 -32 176 -112
WIRE 320 64 320 -32
WIRE 320 112 320 64
WIRE -160 128 -176 128
WIRE -112 128 -160 128
WIRE -16 128 -16 -112
WIRE -16 128 -48 128
WIRE 48 128 -16 128
WIRE 176 128 176 48
WIRE 176 128 112 128
WIRE 288 128 288 112
WIRE 288 128 176 128
WIRE 304 128 288 128
WIRE 512 128 512 -112
WIRE 576 128 512 128
WIRE 608 128 576 128
WIRE 432 144 352 144
WIRE 512 144 512 128
WIRE 512 144 432 144
WIRE 288 160 240 160
WIRE 304 160 288 160
WIRE -16 176 -16 128
WIRE 288 176 288 160
WIRE 320 224 320 176
WIRE -16 288 -16 256
WIRE 240 288 240 160
WIRE 320 304 320 224
FLAG 320 -32 V+
FLAG 320 304 V-
FLAG 576 128 OUT
FLAG -160 128 IN
FLAG 240 288 REF
FLAG -16 288 REF
SYMBOL cap 112 -128 R90
WINDOW 0 0 32 VBottom 2
WINDOW 3 32 32 VTop 2
SYMATTR InstName C3
SYMATTR Value 5.1E-9
SYMBOL res 160 -48 R0
SYMATTR InstName R2
SYMATTR Value 243E3
SYMBOL cap 112 112 R90
WINDOW 0 0 32 VBottom 2
WINDOW 3 32 32 VTop 2
SYMATTR InstName C2
SYMATTR Value 5.1E-9
SYMBOL res -32 160 R0
SYMATTR InstName R1
SYMATTR Value 41.2E3
SYMBOL cap -48 112 R90
WINDOW 0 0 32 VBottom 2
WINDOW 3 32 32 VTop 2
SYMATTR InstName C1
SYMATTR Value 5.1E-9
SYMBOL Opamps\\LT1007 320 80 R0
SYMATTR InstName U1
TEXT -176 504 Left 4 ;This subcircuit is not simulatable.  \nPlease open one of the \n"Filter Design*.asc" schematics to \nsimulate your Filter Wizard design.
