Version 4
SHEET 1 2952 936
WIRE 112 -160 48 -160
WIRE 240 -160 176 -160
WIRE 544 -160 240 -160
WIRE 896 -160 832 -160
WIRE 1024 -160 960 -160
WIRE 1328 -160 1024 -160
WIRE 1680 -160 1616 -160
WIRE 1808 -160 1744 -160
WIRE 2112 -160 1808 -160
WIRE -704 -96 -704 -128
WIRE -576 -96 -576 -128
WIRE -432 -96 -432 -128
WIRE 240 -96 240 -160
WIRE 1024 -96 1024 -160
WIRE 1808 -96 1808 -160
WIRE -704 16 -704 -16
WIRE -576 16 -576 -16
WIRE -432 16 -432 -16
WIRE -256 80 -400 80
WIRE 384 80 384 -64
WIRE 1168 80 1168 -64
WIRE 1952 80 1952 -64
WIRE -256 96 -256 80
WIRE -64 96 -256 96
WIRE 48 96 48 -160
WIRE 48 96 16 96
WIRE 112 96 48 96
WIRE 240 96 240 -16
WIRE 240 96 176 96
WIRE 352 96 352 80
WIRE 352 96 240 96
WIRE 368 96 352 96
WIRE 544 96 544 -160
WIRE 720 96 544 96
WIRE 832 96 832 -160
WIRE 832 96 800 96
WIRE 896 96 832 96
WIRE 1024 96 1024 -16
WIRE 1024 96 960 96
WIRE 1136 96 1136 80
WIRE 1136 96 1024 96
WIRE 1152 96 1136 96
WIRE 1328 96 1328 -160
WIRE 1504 96 1328 96
WIRE 1616 96 1616 -160
WIRE 1616 96 1584 96
WIRE 1680 96 1616 96
WIRE 1808 96 1808 -16
WIRE 1808 96 1744 96
WIRE 1920 96 1920 80
WIRE 1920 96 1808 96
WIRE 1936 96 1920 96
WIRE 2112 96 2112 -160
WIRE 2176 96 2112 96
WIRE 2208 96 2176 96
WIRE -768 112 -912 112
WIRE 544 112 544 96
WIRE 544 112 416 112
WIRE 1328 112 1328 96
WIRE 1328 112 1200 112
WIRE 2112 112 2112 96
WIRE 2112 112 1984 112
WIRE -768 128 -768 112
WIRE 352 128 304 128
WIRE 368 128 352 128
WIRE 1136 128 1088 128
WIRE 1152 128 1136 128
WIRE 1920 128 1872 128
WIRE 1936 128 1920 128
WIRE 48 144 48 96
WIRE 352 144 352 128
WIRE 832 144 832 96
WIRE 1136 144 1136 128
WIRE 1616 144 1616 96
WIRE 1920 144 1920 128
WIRE -400 224 -400 80
WIRE -912 256 -912 112
WIRE 48 256 48 224
WIRE 304 256 304 128
WIRE 832 256 832 224
WIRE 1088 256 1088 128
WIRE 1616 256 1616 224
WIRE 1872 256 1872 128
WIRE 384 272 384 144
WIRE 1168 272 1168 144
WIRE 1952 272 1952 144
WIRE -400 416 -400 304
WIRE -912 448 -912 336
FLAG -400 416 0
FLAG -704 16 0
FLAG -576 16 0
FLAG -704 -128 V+
FLAG -576 -128 V-
FLAG -432 16 0
FLAG -432 -128 REF
FLAG -912 448 0
FLAG -768 128 output
FLAG 384 -64 V+
FLAG 384 272 V-
FLAG 304 256 REF
FLAG 48 256 REF
FLAG 1168 -64 V+
FLAG 1168 272 V-
FLAG 1088 256 REF
FLAG 832 256 REF
FLAG 1952 -64 V+
FLAG 1952 272 V-
FLAG 2176 96 OUT
FLAG 1872 256 REF
FLAG 1616 256 REF
FLAG -400 80 in
SYMBOL voltage -400 208 R0
WINDOW 123 24 124 Left 2
WINDOW 39 0 0 Left 2
SYMATTR InstName VIN1
SYMATTR Value wavefile="sample_noise2" chan=0
SYMBOL voltage -704 -112 R0
WINDOW 123 0 0 Left 2
WINDOW 39 0 0 Left 2
SYMATTR InstName V1
SYMATTR Value 12
SYMBOL voltage -576 -112 R0
WINDOW 123 0 0 Left 2
WINDOW 39 0 0 Left 2
SYMATTR InstName V2
SYMATTR Value -12
SYMBOL voltage -432 -112 R0
WINDOW 123 0 0 Left 2
WINDOW 39 0 0 Left 2
SYMATTR InstName V3
SYMATTR Value 0
SYMBOL voltage -912 240 R0
WINDOW 123 24 124 Left 2
WINDOW 39 0 0 Left 2
SYMATTR InstName VIN2
SYMATTR Value wavefile="sample_noise2" chan=0
SYMBOL res 32 80 R90
WINDOW 0 0 56 VBottom 2
WINDOW 3 32 56 VTop 2
SYMATTR InstName R1
SYMATTR Value 100E3
SYMBOL cap 176 -176 R90
WINDOW 0 0 32 VBottom 2
WINDOW 3 32 32 VTop 2
SYMATTR InstName C1
SYMATTR Value 1.6E-9
SYMBOL res 224 -112 R0
SYMATTR InstName R2
SYMATTR Value 200E3
SYMBOL cap 176 80 R90
WINDOW 0 0 32 VBottom 2
WINDOW 3 32 32 VTop 2
SYMATTR InstName C2
SYMATTR Value 1.6E-9
SYMBOL res 32 128 R0
SYMATTR InstName R3
SYMATTR Value 100E3
SYMBOL Opamps\\LT1178 384 48 R0
SYMATTR InstName U1
SYMBOL res 816 80 R90
WINDOW 0 0 56 VBottom 2
WINDOW 3 32 56 VTop 2
SYMATTR InstName R4
SYMATTR Value 102E3
SYMBOL cap 960 -176 R90
WINDOW 0 0 32 VBottom 2
WINDOW 3 32 32 VTop 2
SYMATTR InstName C3
SYMATTR Value 1E-9
SYMBOL res 1008 -112 R0
SYMATTR InstName R5
SYMATTR Value 453E3
SYMBOL cap 960 80 R90
WINDOW 0 0 32 VBottom 2
WINDOW 3 32 32 VTop 2
SYMATTR InstName C4
SYMATTR Value 1E-9
SYMBOL res 816 128 R0
SYMATTR InstName R6
SYMATTR Value 30.9E3
SYMBOL Opamps\\LT1007 1168 48 R0
SYMATTR InstName U2
SYMBOL res 1600 80 R90
WINDOW 0 0 56 VBottom 2
WINDOW 3 32 56 VTop 2
SYMATTR InstName R7
SYMATTR Value 102E3
SYMBOL cap 1744 -176 R90
WINDOW 0 0 32 VBottom 2
WINDOW 3 32 32 VTop 2
SYMATTR InstName C5
SYMATTR Value 2.4E-9
SYMBOL res 1792 -112 R0
SYMATTR InstName R8
SYMATTR Value 442E3
SYMBOL cap 1744 80 R90
WINDOW 0 0 32 VBottom 2
WINDOW 3 32 32 VTop 2
SYMATTR InstName C6
SYMATTR Value 2.4E-9
SYMBOL res 1600 128 R0
SYMATTR InstName R9
SYMATTR Value 30.1E3
SYMBOL Opamps\\LT1178 1952 48 R0
SYMATTR InstName U3
TEXT -424 520 Left 2 !;.ac dec 100 10 500000\n.save V(*?*) I(*?*)
TEXT -432 496 Left 2 !.tran 2000ms
TEXT -432 464 Left 2 !.wave nowy.wav 16 16000 OUT
