Version 4
SHEET 1 880 680
WIRE 96 -64 -128 -64
WIRE -128 -32 -128 -64
WIRE -128 -32 -176 -32
WIRE 80 -32 -64 -32
WIRE 96 16 96 -64
WIRE 176 16 96 16
WIRE -176 32 -176 -32
WIRE -64 32 -64 -32
WIRE 336 32 272 32
WIRE 80 48 80 -32
WIRE 176 48 80 48
WIRE -176 144 -176 112
WIRE -64 144 -64 112
FLAG -64 144 0
FLAG -176 144 0
FLAG 336 32 out
IOPIN 336 32 Out
SYMBOL voltage -176 16 R0
WINDOW 123 0 0 Left 0
WINDOW 39 0 0 Left 0
SYMATTR InstName V1
SYMATTR Value 15
SYMBOL voltage -64 16 R0
WINDOW 123 0 0 Left 0
WINDOW 39 0 0 Left 0
SYMATTR InstName V2
SYMATTR Value -15
SYMBOL Wien 224 32 R0
SYMATTR InstName X1
TEXT -176 -96 Left 2 !.tran 0 1m 0 1u uic
